simple.fds
Generated by PyroSim 2025.1.0826
2025. 12. 7. 오후 11:19:41

&HEAD CHID='simple'/
&TIME T_END=20.0/
&DUMP DT_PL3D=1.0, DT_RESTART=300.0, DT_SL3D=0.25, WRITE_XYZ=.TRUE., PLOT3D_QUANTITY='VOLUME FRACTION','VOLUME FRACTION','TEMPERATURE','VELOCITY','VISIBILITY', PLOT3D_SPEC_ID(1:2)='CARBON MONOXIDE','OXYGEN'/

&MESH ID='Mesh01', IJK=25,25,16, XB=-21.0,-16.0,2.0,7.0,-0.2,3.0/

&SPEC ID='SFPE WOOD_OAK_fuel', FORMULA='C1.0H1.7O0.72N0.001'/

&REAC ID='SFPE WOOD_OAK',
      FYI='SFPE Handbook, 5th Ed, Tables A.38 and A.39 "Red oak"',
      FUEL='SFPE WOOD_OAK_fuel',
      CO_YIELD=4.0E-3,
      SOOT_YIELD=0.015,
      HEAT_OF_COMBUSTION=1.24E+4,
      RADIATIVE_FRACTION=0.371/

&SURF ID='fire',
      COLOR='RED',
      HRRPUA=1000.0,
      TMP_FRONT=300.0/

&OBST ID='Obstruction', XB=-20.556123,-16.408118,2.86478,6.890184,-0.2,0.0/
&OBST ID='Obstruction', XB=-19.140521,-17.844231,4.2575,5.310735,0.0,0.2, SURF_IDS='fire','INERT','INERT'/

&VENT ID='Mesh Vent: Mesh01 [XMAX]', SURF_ID='OPEN', XB=-16.0,-16.0,2.0,7.0,-0.2,3.0/
&VENT ID='Mesh Vent: Mesh01 [XMIN]', SURF_ID='OPEN', XB=-21.0,-21.0,2.0,7.0,-0.2,3.0/
&VENT ID='Mesh Vent: Mesh01 [YMAX]', SURF_ID='OPEN', XB=-21.0,-16.0,7.0,7.0,-0.2,3.0/
&VENT ID='Mesh Vent: Mesh01 [YMIN]', SURF_ID='OPEN', XB=-21.0,-16.0,2.0,2.0,-0.2,3.0/


&TAIL /
